Circuit: * C:\users\h3l\My Documents\Studium\Auslandssemster\Vorlesungen\SmartSystems\working_directory\simulations\solenoid_driver\Draft1.asc

.OP point found by inspection.

Date: Fri Nov 19 12:40:45 2021
Total elapsed time: 0.359 seconds.

tnom = 27
temp = 27
method = modified trap
totiter = 47241
traniter = 47241
tranpoints = 21477
accept = 17086
rejected = 4391
matrix size = 6
fillins = 0
solver = Normal
Matrix Compiler1: 218 bytes object code size  0.2/0.1/[0.1]
Matrix Compiler2: 388 bytes object code size  0.2/0.2/[0.1]

